<?xml version="1.0" encoding="UTF-8"?>
<!DOCTYPE network SYSTEM "http://www.matsim.org/files/dtd/network_v2.dtd">
<network>

<!-- ====================================================================== -->

	<nodes>
		<node id="1037269183" x="990557.5551569824" y="1818365.625602232" >
		</node>
		<node id="1121034400" x="988325.8218575347" y="1818327.8238442529" >
		</node>
		<node id="1342142177" x="989253.3969691014" y="1819317.1327842774" >
		</node>
		<node id="1366289114" x="988938.4977984353" y="1818203.276370986" >
		</node>
		<node id="1366289115" x="989010.0716070603" y="1818202.5974666649" >
		</node>
		<node id="1366289116" x="989190.0675496518" y="1818203.103260743" >
		</node>
		<node id="1417905629" x="990163.7283419275" y="1818607.7948691624" >
		</node>
		<node id="1450279199" x="990433.080461302" y="1818871.8972663616" >
		</node>
		<node id="1450279206" x="990442.3556046328" y="1819229.2433426892" >
		</node>
		<node id="1450279208" x="990442.5474479779" y="1819248.6544269584" >
		</node>
		<node id="1450279209" x="990447.4994601174" y="1819265.2428529726" >
		</node>
		<node id="276557817" x="988904.7149404159" y="1819194.537732488" >
		</node>
		<node id="276653881" x="989124.1507880891" y="1819666.29832535" >
		</node>
		<node id="276653885" x="989201.1185781094" y="1819699.3233264382" >
		</node>
		<node id="277875231" x="986929.3118253525" y="1820904.636226112" >
		</node>
		<node id="277875410" x="988376.3768636584" y="1819118.2393804763" >
		</node>
		<node id="277922813" x="989196.8587689068" y="1819153.149815757" >
		</node>
		<node id="277922819" x="989474.7566185883" y="1819293.5786612947" >
		</node>
		<node id="278085795" x="990445.8942348583" y="1819672.51593418" >
		</node>
		<node id="278085796" x="990439.2474613956" y="1819265.9396664328" >
		</node>
		<node id="278085799" x="990489.4262782211" y="1818520.4578252917" >
		</node>
		<node id="278085800" x="990535.7152434743" y="1818403.3294647187" >
		</node>
		<node id="278085803" x="990704.61978218" y="1818204.419720837" >
		</node>
		<node id="278085917" x="989202.9170877917" y="1819681.3517507373" >
		</node>
		<node id="278085918" x="989198.0562497594" y="1819322.2263365902" >
		</node>
		<node id="278125508" x="990336.995266248" y="1818607.322698421" >
		</node>
		<node id="278125514" x="989192.1871862113" y="1818053.8556627114" >
		</node>
		<node id="278125515" x="990159.0835041874" y="1818048.555874436" >
		</node>
		<node id="278159703" x="990449.222772319" y="1820120.725076604" >
		</node>
		<node id="278159731" x="990176.5843922524" y="1820016.9741089065" >
		</node>
		<node id="278159732" x="990178.373210195" y="1819656.3431202725" >
		</node>
		<node id="278191558" x="991628.002251393" y="1820312.8981007678" >
		</node>
		<node id="281453720" x="989260.7591042217" y="1818692.4237286907" >
		</node>
		<node id="281453728" x="989260.4233569524" y="1819152.7269638395" >
		</node>
		<node id="281453734" x="989259.8226233359" y="1818979.2128746188" >
		</node>
		<node id="281453741" x="989439.1202447882" y="1818979.402975828" >
		</node>
		<node id="281453746" x="989259.9274087345" y="1819063.7794520822" >
		</node>
		<node id="281453752" x="989439.4839958742" y="1819064.4351050104" >
		</node>
		<node id="281453763" x="989193.6213341916" y="1818887.6627457552" >
		</node>
		<node id="281453768" x="989260.7583917037" y="1818887.3574642057" >
		</node>
		<node id="281453774" x="989438.7110660147" y="1818886.5398427222" >
		</node>
		<node id="281453785" x="989260.1357806043" y="1818797.5449560261" >
		</node>
		<node id="281453790" x="989438.3247578117" y="1818797.7253353167" >
		</node>
		<node id="309314150" x="988197.4326578991" y="1818327.986584149" >
		</node>
		<node id="311758290" x="990444.7503382252" y="1819651.974485191" >
		</node>
		<node id="3158890158" x="989437.8549983845" y="1818691.9621145518" >
		</node>
		<node id="317557194" x="990467.1585075407" y="1818600.833872199" >
		</node>
		<node id="317557370" x="989072.5223819916" y="1819632.9979905267" >
		</node>
		<node id="318917859" x="990605.1171950462" y="1818047.3623010984" >
		</node>
		<node id="318917861" x="990604.0955563876" y="1817816.5802087167" >
		</node>
		<node id="318917920" x="988730.7054776547" y="1818055.8075158508" >
		</node>
		<node id="321599342" x="988731.8278706385" y="1818325.7448365344" >
		</node>
		<node id="321599979" x="989192.9059445339" y="1818320.9871772984" >
		</node>
		<node id="321600080" x="988940.3184267742" y="1818596.6353699565" >
		</node>
		<node id="321600081" x="988936.7606011394" y="1817833.177741678" >
		</node>
		<node id="352962392" x="990161.4135029416" y="1818315.042192718" >
		</node>
		<node id="352962419" x="989942.3539521224" y="1818318.2440653474" >
		</node>
		<node id="352962469" x="989901.6326357248" y="1818610.7250617563" >
		</node>
		<node id="352962568" x="989404.7190832609" y="1818320.0158359406" >
		</node>
		<node id="367236820" x="988712.8285585924" y="1818892.3241150784" >
		</node>
		<node id="367236845" x="988941.8413416023" y="1818763.7147258704" >
		</node>
		<node id="367236856" x="988547.9099888192" y="1818763.6937794145" >
		</node>
		<node id="367236865" x="988480.3321266501" y="1818831.3013615573" >
		</node>
		<node id="367236875" x="988941.6983153835" y="1818672.6925876774" >
		</node>
		<node id="367236928" x="988509.2640103785" y="1818804.885779636" >
		</node>
		<node id="367236932" x="988562.0410785422" y="1818860.2990163174" >
		</node>
		<node id="367236942" x="988548.1550562375" y="1818677.5738579992" >
		</node>
		<node id="367236953" x="988480.9029422911" y="1818774.7970870272" >
		</node>
		<node id="367236982" x="988507.2832342698" y="1818677.672316705" >
		</node>
		<node id="367236991" x="988453.3952457635" y="1818745.7056463559" >
		</node>
		<node id="367237018" x="988469.309813051" y="1818678.343905094" >
		</node>
		<node id="367237027" x="988534.7335283589" y="1818832.9041538257" >
		</node>
		<node id="367237047" x="988587.7408959842" y="1818763.685618403" >
		</node>
		<node id="367237054" x="988586.182968848" y="1818677.4016908268" >
		</node>
		<node id="367237062" x="988627.2176923663" y="1818801.4691259416" >
		</node>
		<node id="367237072" x="988627.2943591333" y="1818764.177152005" >
		</node>
		<node id="367237082" x="988625.807356706" y="1818676.9502914206" >
		</node>
		<node id="367237092" x="988664.8482847961" y="1818676.2336240383" >
		</node>
		<node id="367237102" x="988664.9639258927" y="1818764.6713292694" >
		</node>
		<node id="367237120" x="988738.6927199918" y="1818845.0378294692" >
		</node>
		<node id="367237124" x="988702.9742342251" y="1818675.5626935158" >
		</node>
		<node id="367237130" x="988703.717999396" y="1818764.4210815772" >
		</node>
		<node id="367237138" x="988739.8354791758" y="1818675.0488637134" >
		</node>
		<node id="367237148" x="988739.5123222845" y="1818764.6739989785" >
		</node>
		<node id="367237158" x="988739.6335757293" y="1818892.5443724324" >
		</node>
		<node id="367237167" x="988778.5717968935" y="1818674.6325927435" >
		</node>
		<node id="367237178" x="988779.1277333269" y="1818764.5227990928" >
		</node>
		<node id="367237188" x="988778.2337423422" y="1818891.651309777" >
		</node>
		<node id="367237198" x="988818.8060464194" y="1818674.037088013" >
		</node>
		<node id="367237206" x="988820.2415446388" y="1818764.5695066696" >
		</node>
		<node id="367237216" x="988820.405373853" y="1818891.5968170054" >
		</node>
		<node id="367237225" x="988857.9637802425" y="1818673.4431536298" >
		</node>
		<node id="367237233" x="988858.0801456671" y="1818763.977272618" >
		</node>
		<node id="367237242" x="988897.7773539448" y="1818673.5917313122" >
		</node>
		<node id="367237252" x="988897.3814360134" y="1818763.7160952524" >
		</node>
		<node id="367237263" x="988941.7522418415" y="1818630.5755658415" >
		</node>
		<node id="367237276" x="988942.7826581072" y="1818889.8092977894" >
		</node>
		<node id="367237325" x="989437.5684131794" y="1818626.097196599" >
		</node>
		<node id="367237359" x="989056.5025963107" y="1818596.2217115625" >
		</node>
		<node id="367237478" x="989050.9369272856" y="1818628.895163786" >
		</node>
		<node id="367237509" x="988821.5345190921" y="1818605.4617987918" >
		</node>
		<node id="367237518" x="988815.4945011444" y="1818624.4039161436" >
		</node>
		<node id="367237598" x="988333.460744637" y="1818690.959990053" >
		</node>
		<node id="367237618" x="988954.7906033798" y="1818619.1672899649" >
		</node>
		<node id="367237628" x="989441.0822555423" y="1818616.4205498984" >
		</node>
		<node id="367237649" x="989538.2641892112" y="1818622.425598804" >
		</node>
		<node id="367237670" x="988955.3853023909" y="1818607.1315332884" >
		</node>
		<node id="367237679" x="989441.1499576328" y="1818605.7165304066" >
		</node>
		<node id="367237698" x="989535.5360511801" y="1818599.357193984" >
		</node>
		<node id="367237746" x="989317.3573662188" y="1818627.0985952555" >
		</node>
		<node id="367237815" x="989318.0383384945" y="1818597.304205519" >
		</node>
		<node id="387271478" x="989008.8348169639" y="1818054.9846146293" >
		</node>
		<node id="387271507" x="989252.6279362857" y="1819290.1464756413" >
		</node>
		<node id="387271579" x="988918.3907714311" y="1819219.3556164044" >
		</node>
		<node id="387271583" x="988609.7812789583" y="1818988.0734333612" >
		</node>
		<node id="387271593" x="988376.7660954288" y="1818732.8302171542" >
		</node>
		<node id="387271620" x="989287.4514016776" y="1819290.5137738122" >
		</node>
		<node id="387271631" x="989122.7387458397" y="1819270.2205862445" >
		</node>
		<node id="387271648" x="989104.242801195" y="1819292.4392617606" >
		</node>
		<node id="3955884151" x="990626.2186490952" y="1818080.660276893" >
		</node>
		<node id="3955886857" x="990276.4824816787" y="1818204.8449374824" >
		</node>
		<node id="3955886859" x="990483.7275420679" y="1818248.8837671923" >
		</node>
		<node id="3955886861" x="990278.1030731404" y="1818313.9566318386" >
		</node>
		<node id="3955886862" x="990416.1833540853" y="1818339.8472717905" >
		</node>
		<node id="414675511" x="988939.7015751926" y="1818324.0795407665" >
		</node>
		<node id="4497860967" x="988303.0640382464" y="1818662.183496475" >
		</node>
		<node id="4644114418" x="988731.4901711443" y="1818148.74768314" >
		</node>
		<node id="4662891800" x="988287.0647164565" y="1818679.165025939" >
		</node>
		<node id="4662891801" x="988114.3931367332" y="1818883.8509651462" >
		</node>
		<node id="4679514495" x="990607.5555539369" y="1818103.5524855182" >
		</node>
		<node id="4703023940" x="988977.7292536084" y="1818202.538693625" >
		</node>
		<node id="4703023944" x="989009.2253440825" y="1818101.194040369" >
		</node>
		<node id="4711365535" x="989010.5036433289" y="1818281.5619952502" >
		</node>
		<node id="4711365536" x="988980.269724771" y="1818281.3896199102" >
		</node>
		<node id="4713365783" x="988322.2599219575" y="1818680.5817090627" >
		</node>
		<node id="4713365990" x="988280.2505709083" y="1818642.1818521323" >
		</node>
		<node id="4713366975" x="988733.8781306648" y="1818605.5641811602" >
		</node>
		<node id="4716622018" x="988939.4380287959" y="1818398.7855800374" >
		</node>
		<node id="4716622019" x="989192.9920184037" y="1818397.2345751578" >
		</node>
		<node id="4747440210" x="988328.5796345612" y="1818503.7307701185" >
		</node>
		<node id="4791077002" x="990418.5172770593" y="1818341.0870133548" >
		</node>
		<node id="4791077521" x="990281.5569896739" y="1818313.897298696" >
		</node>
		<node id="4797976800" x="990263.8851449372" y="1818203.6389377885" >
		</node>
		<node id="4798067151" x="990632.3297727479" y="1818090.3038417697" >
		</node>
		<node id="4798067160" x="990820.0721653865" y="1817948.5117767174" >
		</node>
		<node id="4838045030" x="988394.1370930315" y="1818607.9202166714" >
		</node>
		<node id="4838045031" x="988356.0023368428" y="1818622.2802513195" >
		</node>
		<node id="4838045033" x="988259.8246369783" y="1818623.1642372897" >
		</node>
		<node id="4842248557" x="989193.2143124932" y="1818597.1483324352" >
		</node>
		<node id="4842248560" x="989193.2516469064" y="1818627.0971282984" >
		</node>
		<node id="4847094329" x="989072.7080804566" y="1818321.5593423923" >
		</node>
		<node id="4847094330" x="989071.5984163762" y="1818202.7748153224" >
		</node>
		<node id="4941426896" x="989439.8763580963" y="1819150.864823908" >
		</node>
		<node id="496944175" x="989011.2634469293" y="1818321.8477554105" >
		</node>
		<node id="4996268506" x="988621.1876013014" y="1818977.8869297106" >
		</node>
		<node id="4996276800" x="989197.270415303" y="1819289.0949879063" >
		</node>
		<node id="4996276801" x="989197.1640227434" y="1819311.6898817765" >
		</node>
		<node id="4996317819" x="988732.7770872207" y="1818455.5551778888" >
		</node>
		<node id="4996320321" x="988474.476435486" y="1818326.9372350466" >
		</node>
		<node id="5023501780" x="988327.2530614008" y="1818637.847950276" >
		</node>
		<node id="566882635" x="987395.2529452185" y="1818418.108212685" >
		</node>
		<node id="5687701242" x="988465.848940953" y="1819623.5350362374" >
		</node>
		<node id="5687701244" x="988453.8335453875" y="1819633.61164778" >
		</node>
		<node id="5687701246" x="988382.7760787254" y="1819569.0059016137" >
		</node>
		<node id="6314332954" x="989935.7314809697" y="1818610.530117142" >
		</node>
		<node id="6314332955" x="990142.8074422146" y="1818607.496959797" >
		</node>
		<node id="764841582" x="990451.1456236752" y="1818674.592168061" >
		</node>
		<node id="8234428326" x="989149.6477418925" y="1819684.0138548925" >
		</node>
		<node id="827554965" x="988731.6355760772" y="1818191.596502728" >
		</node>
		<node id="827555718" x="988599.0253712413" y="1818326.3843292885" >
		</node>
		<node id="917113629" x="988131.0741162797" y="1819469.9720906583" >
		</node>
		<node id="917113646" x="988358.4765373993" y="1819569.3379986584" >
		</node>
	</nodes>

<!-- ====================================================================== -->

	<links capperiod="01:00:00" effectivecellsize="7.5" effectivelanewidth="3.75">
		<link id="1" from="917113646" to="5687701246" length="24.301810572494414" freespeed="4.166666666666667" capacity="600.0" permlanes="1.0" oneway="1" modes="car" >
			<attributes>
				<attribute name="origid" class="java.lang.String">597323162</attribute>
				<attribute name="type" class="java.lang.String">unclassified</attribute>
			</attributes>
		</link>
		<link id="10" from="4703023940" to="4703023944" length="128.71298731678152" freespeed="4.166666666666667" capacity="600.0" permlanes="1.0" oneway="1" modes="car" >
			<attributes>
				<attribute name="origid" class="java.lang.String">476866664</attribute>
				<attribute name="type" class="java.lang.String">unclassified</attribute>
			</attributes>
		</link>
		<link id="100" from="4644114418" to="318917920" length="92.94347981231437" freespeed="8.333333333333334" capacity="1000.0" permlanes="1.0" oneway="1" modes="car" >
			<attributes>
				<attribute name="origid" class="java.lang.String">888676301</attribute>
				<attribute name="type" class="java.lang.String">secondary</attribute>
			</attributes>
		</link>
		<link id="101" from="367237124" to="367237130" length="88.86150074976365" freespeed="4.166666666666667" capacity="600.0" permlanes="1.0" oneway="1" modes="car" >
			<attributes>
				<attribute name="origid" class="java.lang.String">32660164</attribute>
				<attribute name="type" class="java.lang.String">residential</attribute>
			</attributes>
		</link>
		<link id="102" from="367237130" to="367237124" length="88.86150074976365" freespeed="4.166666666666667" capacity="600.0" permlanes="1.0" oneway="1" modes="car" >
			<attributes>
				<attribute name="origid" class="java.lang.String">32660164</attribute>
				<attribute name="type" class="java.lang.String">residential</attribute>
			</attributes>
		</link>
		<link id="103" from="367237138" to="367237148" length="89.62571785852711" freespeed="4.166666666666667" capacity="600.0" permlanes="1.0" oneway="1" modes="car" >
			<attributes>
				<attribute name="origid" class="java.lang.String">32660165</attribute>
				<attribute name="type" class="java.lang.String">residential</attribute>
			</attributes>
		</link>
		<link id="104" from="367237148" to="367237138" length="89.62571785852711" freespeed="4.166666666666667" capacity="600.0" permlanes="1.0" oneway="1" modes="car" >
			<attributes>
				<attribute name="origid" class="java.lang.String">32660165</attribute>
				<attribute name="type" class="java.lang.String">residential</attribute>
			</attributes>
		</link>
		<link id="105" from="367237148" to="367237120" length="80.36800979906148" freespeed="4.166666666666667" capacity="600.0" permlanes="1.0" oneway="1" modes="car" >
			<attributes>
				<attribute name="origid" class="java.lang.String">32660165</attribute>
				<attribute name="type" class="java.lang.String">residential</attribute>
			</attributes>
		</link>
		<link id="106" from="367237120" to="367237148" length="80.36800979906148" freespeed="4.166666666666667" capacity="600.0" permlanes="1.0" oneway="1" modes="car" >
			<attributes>
				<attribute name="origid" class="java.lang.String">32660165</attribute>
				<attribute name="type" class="java.lang.String">residential</attribute>
			</attributes>
		</link>
		<link id="107" from="367237120" to="367237158" length="47.515858761407806" freespeed="4.166666666666667" capacity="600.0" permlanes="1.0" oneway="1" modes="car" >
			<attributes>
				<attribute name="origid" class="java.lang.String">32660165</attribute>
				<attribute name="type" class="java.lang.String">residential</attribute>
			</attributes>
		</link>
		<link id="108" from="367237158" to="367237120" length="47.515858761407806" freespeed="4.166666666666667" capacity="600.0" permlanes="1.0" oneway="1" modes="car" >
			<attributes>
				<attribute name="origid" class="java.lang.String">32660165</attribute>
				<attribute name="type" class="java.lang.String">residential</attribute>
			</attributes>
		</link>
		<link id="109" from="367237263" to="367236875" length="42.11705635946587" freespeed="8.333333333333334" capacity="1200.0" permlanes="2.0" oneway="1" modes="car" >
			<attributes>
				<attribute name="origid" class="java.lang.String">32660170</attribute>
				<attribute name="type" class="java.lang.String">residential</attribute>
			</attributes>
		</link>
		<link id="11" from="4703023944" to="4703023940" length="128.71298731678152" freespeed="4.166666666666667" capacity="600.0" permlanes="1.0" oneway="1" modes="car" >
			<attributes>
				<attribute name="origid" class="java.lang.String">476866664</attribute>
				<attribute name="type" class="java.lang.String">unclassified</attribute>
			</attributes>
		</link>
		<link id="110" from="367236875" to="367237263" length="42.11705635946587" freespeed="8.333333333333334" capacity="1200.0" permlanes="2.0" oneway="1" modes="car" >
			<attributes>
				<attribute name="origid" class="java.lang.String">32660170</attribute>
				<attribute name="type" class="java.lang.String">residential</attribute>
			</attributes>
		</link>
		<link id="111" from="367236875" to="367236845" length="91.02225080765001" freespeed="8.333333333333334" capacity="1200.0" permlanes="2.0" oneway="1" modes="car" >
			<attributes>
				<attribute name="origid" class="java.lang.String">32660170</attribute>
				<attribute name="type" class="java.lang.String">residential</attribute>
			</attributes>
		</link>
		<link id="112" from="367236845" to="367236875" length="91.02225080765001" freespeed="8.333333333333334" capacity="1200.0" permlanes="2.0" oneway="1" modes="car" >
			<attributes>
				<attribute name="origid" class="java.lang.String">32660170</attribute>
				<attribute name="type" class="java.lang.String">residential</attribute>
			</attributes>
		</link>
		<link id="113" from="367236845" to="367237276" length="126.09808541046597" freespeed="8.333333333333334" capacity="1200.0" permlanes="2.0" oneway="1" modes="car" >
			<attributes>
				<attribute name="origid" class="java.lang.String">32660170</attribute>
				<attribute name="type" class="java.lang.String">residential</attribute>
			</attributes>
		</link>
		<link id="114" from="367237276" to="367236845" length="126.09808541046597" freespeed="8.333333333333334" capacity="1200.0" permlanes="2.0" oneway="1" modes="car" >
			<attributes>
				<attribute name="origid" class="java.lang.String">32660170</attribute>
				<attribute name="type" class="java.lang.String">residential</attribute>
			</attributes>
		</link>
		<link id="115" from="4842248560" to="367237478" length="142.32609809284097" freespeed="8.333333333333334" capacity="2000.0" permlanes="2.0" oneway="1" modes="car" >
			<attributes>
				<attribute name="origid" class="java.lang.String">32660171</attribute>
				<attribute name="type" class="java.lang.String">secondary</attribute>
			</attributes>
		</link>
		<link id="116" from="367237478" to="367237263" length="109.19761575509686" freespeed="8.333333333333334" capacity="2000.0" permlanes="2.0" oneway="1" modes="car" >
			<attributes>
				<attribute name="origid" class="java.lang.String">32660171</attribute>
				<attribute name="type" class="java.lang.String">secondary</attribute>
			</attributes>
		</link>
		<link id="117" from="367237263" to="367237518" length="126.66981876042783" freespeed="8.333333333333334" capacity="2000.0" permlanes="2.0" oneway="1" modes="car" >
			<attributes>
				<attribute name="origid" class="java.lang.String">32660171</attribute>
				<attribute name="type" class="java.lang.String">secondary</attribute>
			</attributes>
		</link>
		<link id="118" from="367237518" to="4838045031" length="459.7940833154404" freespeed="8.333333333333334" capacity="2000.0" permlanes="2.0" oneway="1" modes="car" >
			<attributes>
				<attribute name="origid" class="java.lang.String">32660171</attribute>
				<attribute name="type" class="java.lang.String">secondary</attribute>
			</attributes>
		</link>
		<link id="119" from="367237225" to="367237233" length="90.53419377176243" freespeed="4.166666666666667" capacity="600.0" permlanes="1.0" oneway="1" modes="car" >
			<attributes>
				<attribute name="origid" class="java.lang.String">32660168</attribute>
				<attribute name="type" class="java.lang.String">residential</attribute>
			</attributes>
		</link>
		<link id="120" from="367237233" to="367237225" length="90.53419377176243" freespeed="4.166666666666667" capacity="600.0" permlanes="1.0" oneway="1" modes="car" >
			<attributes>
				<attribute name="origid" class="java.lang.String">32660168</attribute>
				<attribute name="type" class="java.lang.String">residential</attribute>
			</attributes>
		</link>
		<link id="121" from="367237242" to="367237252" length="90.12523357326582" freespeed="4.166666666666667" capacity="600.0" permlanes="1.0" oneway="1" modes="car" >
			<attributes>
				<attribute name="origid" class="java.lang.String">32660169</attribute>
				<attribute name="type" class="java.lang.String">residential</attribute>
			</attributes>
		</link>
		<link id="122" from="367237252" to="367237242" length="90.12523357326582" freespeed="4.166666666666667" capacity="600.0" permlanes="1.0" oneway="1" modes="car" >
			<attributes>
				<attribute name="origid" class="java.lang.String">32660169</attribute>
				<attribute name="type" class="java.lang.String">residential</attribute>
			</attributes>
		</link>
		<link id="123" from="367237359" to="367237478" length="47.70722839001699" freespeed="8.333333333333334" capacity="1000.0" permlanes="1.0" oneway="1" modes="car" >
			<attributes>
				<attribute name="origid" class="java.lang.String">32660174</attribute>
				<attribute name="type" class="java.lang.String">secondary_link</attribute>
			</attributes>
		</link>
		<link id="124" from="309314150" to="1121034400" length="128.38930277613764" freespeed="4.166666666666667" capacity="600.0" permlanes="1.0" oneway="1" modes="car" >
			<attributes>
				<attribute name="origid" class="java.lang.String">145079449</attribute>
				<attribute name="type" class="java.lang.String">residential</attribute>
			</attributes>
		</link>
		<link id="125" from="1121034400" to="309314150" length="128.38930277613764" freespeed="4.166666666666667" capacity="600.0" permlanes="1.0" oneway="1" modes="car" >
			<attributes>
				<attribute name="origid" class="java.lang.String">145079449</attribute>
				<attribute name="type" class="java.lang.String">residential</attribute>
			</attributes>
		</link>
		<link id="126" from="1121034400" to="4996320321" length="148.65722189575098" freespeed="4.166666666666667" capacity="600.0" permlanes="1.0" oneway="1" modes="car" >
			<attributes>
				<attribute name="origid" class="java.lang.String">145079449</attribute>
				<attribute name="type" class="java.lang.String">residential</attribute>
			</attributes>
		</link>
		<link id="127" from="4996320321" to="1121034400" length="148.65722189575098" freespeed="4.166666666666667" capacity="600.0" permlanes="1.0" oneway="1" modes="car" >
			<attributes>
				<attribute name="origid" class="java.lang.String">145079449</attribute>
				<attribute name="type" class="java.lang.String">residential</attribute>
			</attributes>
		</link>
		<link id="128" from="4996320321" to="827555718" length="124.55018209840148" freespeed="4.166666666666667" capacity="600.0" permlanes="1.0" oneway="1" modes="car" >
			<attributes>
				<attribute name="origid" class="java.lang.String">145079449</attribute>
				<attribute name="type" class="java.lang.String">residential</attribute>
			</attributes>
		</link>
		<link id="129" from="827555718" to="4996320321" length="124.55018209840148" freespeed="4.166666666666667" capacity="600.0" permlanes="1.0" oneway="1" modes="car" >
			<attributes>
				<attribute name="origid" class="java.lang.String">145079449</attribute>
				<attribute name="type" class="java.lang.String">residential</attribute>
			</attributes>
		</link>
		<link id="13" from="764841582" to="278125508" length="150.27405792809358" freespeed="8.333333333333334" capacity="1000.0" permlanes="1.0" oneway="1" modes="car" >
			<attributes>
				<attribute name="origid" class="java.lang.String">61151405</attribute>
				<attribute name="type" class="java.lang.String">secondary_link</attribute>
			</attributes>
		</link>
		<link id="130" from="827555718" to="321599342" length="132.80403942927057" freespeed="4.166666666666667" capacity="600.0" permlanes="1.0" oneway="1" modes="car" >
			<attributes>
				<attribute name="origid" class="java.lang.String">145079449</attribute>
				<attribute name="type" class="java.lang.String">residential</attribute>
			</attributes>
		</link>
		<link id="131" from="321599342" to="827555718" length="132.80403942927057" freespeed="4.166666666666667" capacity="600.0" permlanes="1.0" oneway="1" modes="car" >
			<attributes>
				<attribute name="origid" class="java.lang.String">145079449</attribute>
				<attribute name="type" class="java.lang.String">residential</attribute>
			</attributes>
		</link>
		<link id="132" from="321599342" to="414675511" length="207.88037520001114" freespeed="4.166666666666667" capacity="600.0" permlanes="1.0" oneway="1" modes="car" >
			<attributes>
				<attribute name="origid" class="java.lang.String">145079449</attribute>
				<attribute name="type" class="java.lang.String">residential</attribute>
			</attributes>
		</link>
		<link id="133" from="414675511" to="321599342" length="207.88037520001114" freespeed="4.166666666666667" capacity="600.0" permlanes="1.0" oneway="1" modes="car" >
			<attributes>
				<attribute name="origid" class="java.lang.String">145079449</attribute>
				<attribute name="type" class="java.lang.String">residential</attribute>
			</attributes>
		</link>
		<link id="134" from="414675511" to="496944175" length="71.59666439387861" freespeed="4.166666666666667" capacity="600.0" permlanes="1.0" oneway="1" modes="car" >
			<attributes>
				<attribute name="origid" class="java.lang.String">145079449</attribute>
				<attribute name="type" class="java.lang.String">residential</attribute>
			</attributes>
		</link>
		<link id="135" from="496944175" to="414675511" length="71.59666439387861" freespeed="4.166666666666667" capacity="600.0" permlanes="1.0" oneway="1" modes="car" >
			<attributes>
				<attribute name="origid" class="java.lang.String">145079449</attribute>
				<attribute name="type" class="java.lang.String">residential</attribute>
			</attributes>
		</link>
		<link id="136" from="496944175" to="4847094329" length="61.44531040994473" freespeed="4.166666666666667" capacity="600.0" permlanes="1.0" oneway="1" modes="car" >
			<attributes>
				<attribute name="origid" class="java.lang.String">145079449</attribute>
				<attribute name="type" class="java.lang.String">residential</attribute>
			</attributes>
		</link>
		<link id="137" from="4847094329" to="496944175" length="61.44531040994473" freespeed="4.166666666666667" capacity="600.0" permlanes="1.0" oneway="1" modes="car" >
			<attributes>
				<attribute name="origid" class="java.lang.String">145079449</attribute>
				<attribute name="type" class="java.lang.String">residential</attribute>
			</attributes>
		</link>
		<link id="138" from="4847094329" to="321599979" length="120.19922587785885" freespeed="4.166666666666667" capacity="600.0" permlanes="1.0" oneway="1" modes="car" >
			<attributes>
				<attribute name="origid" class="java.lang.String">145079449</attribute>
				<attribute name="type" class="java.lang.String">residential</attribute>
			</attributes>
		</link>
		<link id="139" from="321599979" to="4847094329" length="120.19922587785885" freespeed="4.166666666666667" capacity="600.0" permlanes="1.0" oneway="1" modes="car" >
			<attributes>
				<attribute name="origid" class="java.lang.String">145079449</attribute>
				<attribute name="type" class="java.lang.String">residential</attribute>
			</attributes>
		</link>